STAAD PLANE
START JOB INFORMATION
ENGINEER DATE 06-Mar-17
END JOB INFORMATION
INPUT WIDTH 79
UNIT METER KN
JOINT COORDINATES
2 0 0 0; 3 0.1 -0.49 0; 4 0.2 -0.96 0; 5 0.3 -1.41 0; 6 0.4 -1.84 0;
7 0.5 -2.25 0; 8 0.6 -2.64 0; 9 0.7 -3.01 0; 10 0.8 -3.36 0; 11 0.9 -3.69 0;
12 1 -4 0; 13 1.1 -4.29 0; 14 1.2 -4.56 0; 15 1.3 -4.81 0; 16 1.4 -5.04 0;
17 1.5 -5.25 0; 18 1.6 -5.44 0; 19 1.7 -5.61 0; 20 1.8 -5.76 0; 21 1.9 -5.89 0;
22 2 -6 0; 23 2.1 -6.09 0; 24 2.2 -6.16 0; 25 2.3 -6.21 0; 26 2.4 -6.24 0;
27 2.5 -6.25 0; 28 2.6 -6.24 0; 29 2.7 -6.21 0; 30 2.8 -6.16 0; 31 2.9 -6.09 0;
32 3 -6 0; 33 3.1 -5.89 0; 34 3.2 -5.76 0; 35 3.3 -5.61 0; 36 3.4 -5.44 0;
37 3.5 -5.25 0; 38 3.6 -5.04 0; 39 3.7 -4.81 0; 40 3.8 -4.56 0; 41 3.9 -4.29 0;
42 4 -4 0; 43 4.1 -3.69 0; 44 4.2 -3.36 0; 45 4.3 -3.01 0; 46 4.4 -2.64 0;
47 4.5 -2.25 0; 48 4.6 -1.84 0; 49 4.7 -1.41 0; 50 4.8 -0.96 0; 51 4.9 -0.49 0;
52 5 0 0;
MEMBER INCIDENCES
2 2 3; 3 3 4; 4 4 5; 5 5 6; 6 6 7; 7 7 8; 8 8 9; 9 9 10; 10 10 11; 11 11 12;
12 12 13; 13 13 14; 14 14 15; 15 15 16; 16 16 17; 17 17 18; 18 18 19; 19 19 20;
20 20 21; 21 21 22; 22 22 23; 23 23 24; 24 24 25; 25 25 26; 26 26 27; 27 27 28;
28 28 29; 29 29 30; 30 30 31; 31 31 32; 32 32 33; 33 33 34; 34 34 35; 35 35 36;
36 36 37; 37 37 38; 38 38 39; 39 39 40; 40 40 41; 41 41 42; 42 42 43; 43 43 44;
44 44 45; 45 45 46; 46 46 47; 47 47 48; 48 48 49; 49 49 50; 50 50 51; 51 51 52;
DEFINE MATERIAL START
ISOTROPIC STAINLESSSTEEL
E 1.9793e+008
POISSON 0.3
DENSITY 76.8195
ALPHA 1.8e-005
DAMP 0.03
END DEFINE MATERIAL
MEMBER PROPERTY
2 TO 51 PRIS YD 0.3
CONSTANTS
MATERIAL STAINLESSSTEEL ALL
SUPPORTS
2 52 FIXED BUT FX FZ MX MY MZ
LOAD 1 LOADTYPE None  TITLE LOAD CASE 1
MEMBER LOAD
25 CON GY -150 2.5
PERFORM ANALYSIS PRINT ALL
FINISH
